 Solid BEXT Test                                                         
                    ls-dyna smp d DEV_78718_a1966c1dbd  date 08/27/2020

 r e s u l t s   o f   e i g e n v a l u e   a n a l y s i s:

 problem time =  0.00000E+00

 (all frequencies de-shifted)

                             |------ frequency -----|
        MODE    EIGENVALUE       RADIANS        CYCLES        PERIOD
           1   6.743304E-14   2.596787E-07   4.132915E-08   2.419600E+07
           2   7.903660E-14   2.811345E-07   4.474394E-08   2.234939E+07
           3   8.607264E-14   2.933814E-07   4.669310E-08   2.141644E+07
           4   9.735528E-14   3.120181E-07   4.965922E-08   2.013725E+07
           5   1.956386E-13   4.423106E-07   7.039591E-08   1.420537E+07
           6   2.063523E-13   4.542602E-07   7.229775E-08   1.383169E+07
           7   2.042757E-01   4.519687E-01   7.193305E-02   1.390182E+01
           8   2.562286E-01   5.061902E-01   8.056268E-02   1.241270E+01
           9   7.149640E-01   8.455554E-01   1.345743E-01   7.430838E+00
          10   7.262160E-01   8.521831E-01   1.356291E-01   7.373046E+00
          11   7.736399E-01   8.795680E-01   1.399876E-01   7.143490E+00
          12   8.422793E-01   9.177577E-01   1.460657E-01   6.846235E+00
          13   8.778698E-01   9.369470E-01   1.491198E-01   6.706020E+00
          14   1.171995E+00   1.082587E+00   1.722991E-01   5.803862E+00
          15   1.222177E+00   1.105521E+00   1.759492E-01   5.683459E+00
          16   1.305676E+00   1.142662E+00   1.818603E-01   5.498726E+00
          17   1.371520E+00   1.171119E+00   1.863894E-01   5.365111E+00
          18   1.546783E+00   1.243697E+00   1.979406E-01   5.052022E+00
          19   1.643623E+00   1.282039E+00   2.040428E-01   4.900932E+00
          20   1.718217E+00   1.310808E+00   2.086216E-01   4.793368E+00


 MODAL PARTICIPATION FACTORS

         MODE       X-TRAN         Y-TRAN         Z-TRAN          X-ROT          Y-ROT          Z-ROT

           1  -1.360671E-01   5.533430E-01  -1.268455E+01   0.000000E+00   0.000000E+00   0.000000E+00
           2   4.827145E-02   1.269909E+01   5.085525E-01   0.000000E+00   0.000000E+00   0.000000E+00
           3   2.485921E-01   1.949303E+00   5.931715E-01   0.000000E+00   0.000000E+00   0.000000E+00
           4   1.389347E+01  -1.068591E-01  -1.440689E-01   0.000000E+00   0.000000E+00   0.000000E+00
           5   1.909353E-02  -6.983957E-02   5.620360E+00   0.000000E+00   0.000000E+00   0.000000E+00
           6  -8.805352E-02  -5.265931E+00   4.147234E-02   0.000000E+00   0.000000E+00   0.000000E+00
           7  -5.386989E-14  -5.203350E-12  -3.992390E-14   0.000000E+00   0.000000E+00   0.000000E+00
           8  -5.945895E-14   3.009360E-14   4.338601E-12   0.000000E+00   0.000000E+00   0.000000E+00
           9   7.299066E-15   5.069296E-15   5.310617E-14   0.000000E+00   0.000000E+00   0.000000E+00
          10   4.431696E-15   1.403624E-15  -3.057019E-15   0.000000E+00   0.000000E+00   0.000000E+00
          11   1.209709E-14   7.494799E-13   2.068596E-14   0.000000E+00   0.000000E+00   0.000000E+00
          12   5.384262E-16  -1.945490E-14   3.021940E-15   0.000000E+00   0.000000E+00   0.000000E+00
          13   1.621836E-14   1.140071E-14   6.022977E-13   0.000000E+00   0.000000E+00   0.000000E+00
          14  -3.699660E-16  -3.279967E-15  -1.099612E-14   0.000000E+00   0.000000E+00   0.000000E+00
          15   2.566317E-15  -3.403442E-15  -3.987619E-15   0.000000E+00   0.000000E+00   0.000000E+00
          16   1.820636E-15   9.789031E-15  -2.596173E-15   0.000000E+00   0.000000E+00   0.000000E+00
          17   2.820566E-15   2.909781E-15  -1.043325E-15   0.000000E+00   0.000000E+00   0.000000E+00
          18  -1.279096E-16  -9.547349E-16   7.868121E-15   0.000000E+00   0.000000E+00   0.000000E+00
          19   1.792295E-15   5.116683E-15  -4.995068E-15   0.000000E+00   0.000000E+00   0.000000E+00
          20  -2.611837E-13  -3.793596E-15   1.865878E-16   0.000000E+00   0.000000E+00   0.000000E+00


 MODAL EFFECTIVE MASS


         MODE            X-TRAN                    Y-TRAN                    Z-TRAN
                  Eff. Mass   Accum. %      Eff. Mass   Accum. %      Eff. Mass   Accum. %

           1    1.851424E-02     0.01%    3.061885E-01     0.16%    1.608979E+02    83.32%
           2    2.330133E-03     0.01%    1.612670E+02    83.66%    2.586257E-01    83.45%
           3    6.179805E-02     0.04%    3.799782E+00    85.63%    3.518524E-01    83.63%
           4    1.930285E+02   100.00%    1.141886E-02    85.64%    2.075585E-02    83.64%
           5    3.645631E-04   100.00%    4.877566E-03    85.64%    3.158844E+01   100.00%
           6    7.753422E-03   100.00%    2.773003E+01   100.00%    1.719955E-03   100.00%
           7    2.901965E-27   100.00%    2.707485E-23   100.00%    1.593917E-27   100.00%
           8    3.535367E-27   100.00%    9.056248E-28   100.00%    1.882346E-23   100.00%
           9    5.327636E-29   100.00%    2.569776E-29   100.00%    2.820266E-27   100.00%
          10    1.963993E-29   100.00%    1.970161E-30   100.00%    9.345368E-30   100.00%
          11    1.463397E-28   100.00%    5.617201E-25   100.00%    4.279089E-28   100.00%
          12    2.899028E-31   100.00%    3.784930E-28   100.00%    9.132121E-30   100.00%
          13    2.630353E-28   100.00%    1.299762E-28   100.00%    3.627626E-25   100.00%
          14    1.368748E-31   100.00%    1.075818E-29   100.00%    1.209147E-28   100.00%
          15    6.585981E-30   100.00%    1.158342E-29   100.00%    1.590111E-29   100.00%
          16    3.314717E-30   100.00%    9.582513E-29   100.00%    6.740114E-30   100.00%
          17    7.955590E-30   100.00%    8.466825E-30   100.00%    1.088527E-30   100.00%
          18    1.636087E-32   100.00%    9.115187E-31   100.00%    6.190733E-29   100.00%
          19    3.212320E-30   100.00%    2.618045E-29   100.00%    2.495071E-29   100.00%
          20    6.821690E-26   100.00%    1.439137E-29   100.00%    3.481501E-32   100.00%
