*KEYWORD 500M
*TITLE
Solid BEXT Test
*INCLUDE_TRANSFORM
rod_hex_gref_lev0_lref_BEXT.txt
$rod_ds.txt
1,0,1,0,0



*PART
BEXT part
1,1,1
*SECTION_SOLID
1,201
*MAT_ELASTIC
1,1.,50,0.3
*CONTROL_IMPLICIT_GENERAL
1,1.
*CONTROL_IMPLICIT_EIGENVALUE
20
*END
