 Solid BEXT Test                                                         
                    ls-dyna smp d DEV_78718_a1966c1dbd  date 08/27/2020

 r e s u l t s   o f   e i g e n v a l u e   a n a l y s i s:

 problem time =  0.00000E+00

 (all frequencies de-shifted)

                             |------ frequency -----|
        MODE    EIGENVALUE       RADIANS        CYCLES        PERIOD
           1   8.219467E-14   2.866961E-07   4.562911E-08   2.191584E+07
           2   8.527554E-14   2.920198E-07   4.647639E-08   2.151630E+07
           3   9.010240E-14   3.001706E-07   4.777364E-08   2.093205E+07
           4   9.604383E-14   3.099094E-07   4.932361E-08   2.027427E+07
           5   2.057356E-13   4.535809E-07   7.218964E-08   1.385240E+07
           6   2.140345E-13   4.626386E-07   7.363123E-08   1.358119E+07
           7   2.022243E-01   4.496936E-01   7.157095E-02   1.397215E+01
           8   2.529111E-01   5.029027E-01   8.003945E-02   1.249384E+01
           9   7.143972E-01   8.452202E-01   1.345210E-01   7.433785E+00
          10   7.263861E-01   8.522829E-01   1.356450E-01   7.372183E+00
          11   7.695793E-01   8.772567E-01   1.396197E-01   7.162311E+00
          12   8.427821E-01   9.180317E-01   1.461093E-01   6.844192E+00
          13   8.701956E-01   9.328427E-01   1.484665E-01   6.735525E+00
          14   1.172720E+00   1.082922E+00   1.723524E-01   5.802066E+00
          15   1.224381E+00   1.106518E+00   1.761077E-01   5.678342E+00
          16   1.309215E+00   1.144209E+00   1.821066E-01   5.491289E+00
          17   1.371980E+00   1.171316E+00   1.864207E-01   5.364213E+00
          18   1.547532E+00   1.243998E+00   1.979885E-01   5.050799E+00
          19   1.655640E+00   1.286717E+00   2.047873E-01   4.883115E+00
          20   1.720681E+00   1.311747E+00   2.087711E-01   4.789935E+00


 MODAL PARTICIPATION FACTORS

         MODE       X-TRAN         Y-TRAN         Z-TRAN          X-ROT          Y-ROT          Z-ROT

           1   1.688927E-01   2.559387E+00  -1.205444E+01   0.000000E+00   0.000000E+00   0.000000E+00
           2   7.769955E-01  -1.268267E+01  -2.616815E+00   0.000000E+00   0.000000E+00   0.000000E+00
           3  -4.196796E-01   6.339611E-01  -3.589910E+00   0.000000E+00   0.000000E+00   0.000000E+00
           4  -1.388593E+01  -7.393112E-01  -1.991900E-01   0.000000E+00   0.000000E+00   0.000000E+00
           5   5.255315E-02  -6.079831E-01  -5.299608E+00   0.000000E+00   0.000000E+00   0.000000E+00
           6  -1.093466E-01   4.992335E+00  -6.869934E-01   0.000000E+00   0.000000E+00   0.000000E+00
           7   1.829631E-13   5.561585E-12  -4.108133E-14   0.000000E+00   0.000000E+00   0.000000E+00
           8   2.966484E-14  -2.431685E-14   4.547150E-12   0.000000E+00   0.000000E+00   0.000000E+00
           9   1.310753E-14   1.430590E-14   9.417071E-14   0.000000E+00   0.000000E+00   0.000000E+00
          10   7.182463E-15   6.277009E-16   7.203500E-15   0.000000E+00   0.000000E+00   0.000000E+00
          11  -6.436854E-14   6.555144E-13   1.345015E-14   0.000000E+00   0.000000E+00   0.000000E+00
          12  -4.400954E-15   1.112996E-14  -3.361294E-15   0.000000E+00   0.000000E+00   0.000000E+00
          13  -1.517676E-14  -4.670225E-15  -5.570060E-13   0.000000E+00   0.000000E+00   0.000000E+00
          14  -2.764567E-16  -7.935348E-15  -4.426426E-15   0.000000E+00   0.000000E+00   0.000000E+00
          15   5.968035E-16  -4.573809E-17   4.549702E-15   0.000000E+00   0.000000E+00   0.000000E+00
          16  -1.887611E-15   1.368949E-14  -2.497981E-15   0.000000E+00   0.000000E+00   0.000000E+00
          17  -6.344840E-16  -1.734802E-15  -6.749601E-15   0.000000E+00   0.000000E+00   0.000000E+00
          18  -1.692089E-15  -5.067168E-15   4.225017E-15   0.000000E+00   0.000000E+00   0.000000E+00
          19   2.577988E-15   2.458444E-15  -1.512611E-15   0.000000E+00   0.000000E+00   0.000000E+00
          20  -2.391634E-13  -1.876759E-14  -1.909889E-13   0.000000E+00   0.000000E+00   0.000000E+00


 MODAL EFFECTIVE MASS


         MODE            X-TRAN                    Y-TRAN                    Z-TRAN
                  Eff. Mass   Accum. %      Eff. Mass   Accum. %      Eff. Mass   Accum. %

           1    2.852473E-02     0.01%    6.550462E+00     3.38%    1.453095E+02    75.04%
           2    6.037220E-01     0.33%    1.608502E+02    86.45%    6.847720E+00    78.58%
           3    1.761310E-01     0.42%    4.019067E-01    86.66%    1.288745E+01    85.23%
           4    1.928191E+02    99.99%    5.465811E-01    86.94%    3.967666E-02    85.25%
           5    2.761833E-03    99.99%    3.696434E-01    87.13%    2.808585E+01    99.76%
           6    1.195668E-02   100.00%    2.492341E+01   100.00%    4.719599E-01   100.00%
           7    3.347549E-26   100.00%    3.093123E-23   100.00%    1.687676E-27   100.00%
           8    8.800029E-28   100.00%    5.913092E-28   100.00%    2.067657E-23   100.00%
           9    1.718073E-28   100.00%    2.046587E-28   100.00%    8.868123E-27   100.00%
          10    5.158777E-29   100.00%    3.940084E-31   100.00%    5.189041E-29   100.00%
          11    4.143309E-27   100.00%    4.296992E-25   100.00%    1.809066E-28   100.00%
          12    1.936840E-29   100.00%    1.238760E-28   100.00%    1.129830E-29   100.00%
          13    2.303342E-28   100.00%    2.181100E-29   100.00%    3.102557E-25   100.00%
          14    7.642829E-32   100.00%    6.296975E-29   100.00%    1.959325E-29   100.00%
          15    3.561745E-31   100.00%    2.091972E-33   100.00%    2.069979E-29   100.00%
          16    3.563074E-30   100.00%    1.874022E-28   100.00%    6.239909E-30   100.00%
          17    4.025700E-31   100.00%    3.009537E-30   100.00%    4.555712E-29   100.00%
          18    2.863164E-30   100.00%    2.567619E-29   100.00%    1.785077E-29   100.00%
          19    6.646022E-30   100.00%    6.043945E-30   100.00%    2.287991E-30   100.00%
          20    5.719913E-26   100.00%    3.522225E-28   100.00%    3.647676E-26   100.00%
